pcf
* control data
restart regularisation
19 19 2 10 3
2 3 single point 1 0 0
5 2 0.3 0.03 10
2 3 0.001 0
0.5
30 0.01 3 3 0.01 3
1 1 1
* parameter groups
ro relative 0.001 0.0001 switch 2 parabolic
hhh relative 0.001 0.0001 switch 2 parabolic
* parameter data
ro1  log factor 1.000000 0.1 10000 ro 1 0 1
ro2  log factor 1.000000 0.1 10000 ro 1 0 1
ro3  log factor 1.000000 0.1 10000 ro 1 0 1
ro4  log factor 1.000000 0.1 10000 ro 1 0 1
ro5  log factor 1.000000 0.1 10000 ro 1 0 1
ro6  log factor 1.000000 0.1 10000 ro 1 0 1
ro7  log factor 1.000000 0.1 10000 ro 1 0 1
ro8  log factor 1.000000 0.1 10000 ro 1 0 1
ro9  log factor 1.000000 0.1 10000 ro 1 0 1
ro10 log factor 1.000000 0.1 10000 ro 1 0 1
h1   fixed factor  0.25  0.05 100 hhh 1 0 1
h2   fixed factor  0.50 0.05 100 hhh 1 0  1
h3   fixed factor  1.00 0.05 100 hhh 1 0  1
h4   fixed factor  2.00 0.05 100 hhh 1 0  1
h5   fixed factor  4.00 0.05 100 hhh 1 0  1
h6   fixed factor  8.00 0.05 100 hhh 1 0  1
h7   fixed factor  16.0 0.05 100 hhh 1 0  1
h8   fixed factor  32.0 0.05 100 hhh 1 0  1
h9   fixed factor  64.0 0.05 100 hhh 1 0  1
* observation groups
obsgp1
obsgp2
regul
* observation data
ar1 1.21038 1 obsgp1
ar2 1.51208 1 obsgp1
ar3 2.07204 1 obsgp1
ar4 2.94056 1 obsgp1
ar5 4.15787 1 obsgp1
ar6 5.7762 1 obsgp1
ar7 7.7894 1 obsgp1
ar8 9.99743 1 obsgp1
ar9 11.8307 1 obsgp2
ar10 12.3194 1 obsgp2
ar11 10.6003 1 obsgp2
ar12 7.00419 1 obsgp2
ar13 3.44391 1 obsgp2
ar14 1.58279 1 obsgp2
ar15 1.1038 1 obsgp2
ar16 1.03086 1 obsgp2
ar17 1.01318 1 obsgp2
ar18 1.00593 1 obsgp2
ar19 1.00272 1 obsgp2
* model command line
../ves
* model input/output
ves1r.tpl a_model.in1
ves2r.tpl a_model.in2
ves1.ins a_model.ot1
ves2.ins a_model.ot2
ves3.ins a_model.ot3
* prior information
pi1  1.0 * log(ro1)  - 1.0 * log(ro2)  = 0.0 1.0 regul
pi2  1.0 * log(ro2)  - 1.0 * log(ro3)  = 0.0 1.0 regul
pi3  1.0 * log(ro3)  - 1.0 * log(ro4)  = 0.0 1.0 regul
pi4  1.0 * log(ro4)  - 1.0 * log(ro5)  = 0.0 1.0 regul
pi5  1.0 * log(ro5)  - 1.0 * log(ro6)  = 0.0 1.0 regul
pi6  1.0 * log(ro6)  - 1.0 * log(ro7)  = 0.0 1.0 regul
pi7  1.0 * log(ro7)  - 1.0 * log(ro8)  = 0.0 1.0 regul
pi8  1.0 * log(ro8)  - 1.0 * log(ro9)  = 0.0 1.0 regul
pi9  1.0 * log(ro9)  - 1.0 * log(ro10) = 0.0 1.0 regul
pi10 1.0 * log(ro10) - 1.0 * log(ro1)  = 0.0 1.0 regul
* regularisation
1.0 1.05
1 1.0e-10 1.0e10
1.3  1.0e-2

